LTspice 24.1.10 for Windows
Circuit: C:\Users\Daniel\Documents\WWU_F25\ENGR357\CPTR480-ENGR357_Quadrature_SDR\LTSpice_Simulations\Antenna_BP_Filter.net
Start Time: Mon May  4 22:53:30 2026
solver = Normal
Maximum thread count: 16
tnom = 27
temp = 27
method = trap
.OP point found by inspection.
Total elapsed time: 0.072 seconds.

Files loaded:
C:\Users\Daniel\Documents\WWU_F25\ENGR357\CPTR480-ENGR357_Quadrature_SDR\LTSpice_Simulations\Antenna_BP_Filter.net

