LTspice 24.1.10 for Windows
Circuit: C:\Users\Daniel\Documents\WWU_F25\ENGR357\CPTR480-ENGR357_Quadrature_SDR\LTSpice_Simulations\LP_filter.net
Start Time: Mon May  4 23:14:25 2026
solver = Normal
Maximum thread count: 16
tnom = 27
temp = 27
method = trap
WARNING: Node p001 is floating.
WARNING: Node i_signal is floating.
WARNING: Node p002 is floating.

.OP point found by inspection.
Total elapsed time: 0.045 seconds.

Files loaded:
C:\Users\Daniel\Documents\WWU_F25\ENGR357\CPTR480-ENGR357_Quadrature_SDR\LTSpice_Simulations\LP_filter.net

