Circuit: * E:\College\Walla Walla 2025-2026\Q3 Spring 2026\Electronics II\CPTR480-ENGR357_Quadrature_SDR\LTSpice_Simulations\LP_filter.asc


Date: Sun May 03 10:14:03 2026
Total elapsed time: 0.201 seconds.

tnom = 27
temp = 27
method = trap
totiter = 0
traniter = 0
tranpoints = 0
accept = 0
rejected = 0
matrix size = 3
fillins = 0
solver = Normal

